/*--------------------------------*- C++ -*----------------------------------*\
| =========                 |                                                 |
| \\      /  F ield         | OpenFOAM: The Open Source CFD Toolbox           |
|  \\    /   O peration     | Version:  v2412                                 |
|   \\  /    A nd           | Website:  www.openfoam.com                      |
|    \\/     M anipulation  |                                                 |
\*---------------------------------------------------------------------------*/
FoamFile
{
    version     2.0;
    format      ascii;
    class       dictionary;
    object      blockMeshDict;
}
// * * * * * * * * * * * * * * * * * * * * * * * * * * * * * * * * * * * * * //

scale   1;

#include "constant/configurationDict"

vertices
(
    ($xMin $yMin $zMin)  // 0
    ($xMax $yMin $zMin)  // 1
    ($xMax $yMax $zMin)  // 2
    ($xMin $yMax $zMin)  // 3

    ($xMin $yMin $zCoarseBelow)     // 4
    ($xMax $yMin $zCoarseBelow)     // 5
    ($xMax $yMax $zCoarseBelow)     // 6
    ($xMin $yMax $zCoarseBelow)     // 7

    ($xMin $yMin $zBelowSurface)  // 8
    ($xMax $yMin $zBelowSurface)  // 9
    ($xMax $yMax $zBelowSurface)  // 10
    ($xMin $yMax $zBelowSurface)  // 11

    ($xMin $yMin $Tm)    // 12
    ($xMax $yMin $Tm)    // 13
    ($xMax $yMax $Tm)    // 14
    ($xMin $yMax $Tm)    // 15

    ($xMin $yMin $zAboveSurface)    // 16
    ($xMax $yMin $zAboveSurface)    // 17
    ($xMax $yMax $zAboveSurface)    // 18
    ($xMin $yMax $zAboveSurface)    // 19

    ($xMin $yMin 1.6)    // 20
    ($xMax $yMin 1.6)    // 21
    ($xMax $yMax 1.6)    // 22
    ($xMin $yMax 1.6)    // 23

    ($xMin $yMin $zMax)  // 24
    ($xMax $yMin $zMax)  // 25
    ($xMax $yMax $zMax)  // 26
    ($xMin $yMax $zMax)  // 27
);

blocks
(
    //From bottom to top by layers
    hex (0 1 2 3 4 5 6 7) ($Nx $Ny $Nz_1) simpleGrading (1 1 0.05)       //
    hex (4 5 6 7 8 9 10 11) ($Nx $Ny $Nz_2) simpleGrading (1 1 1)
    hex (8 9 10 11 12 13 14 15) ($Nx $Ny $Nz_3) simpleGrading (1 1 1)
    hex (12 13 14 15 16 17 18 19) ($Nx $Ny $Nz_4) simpleGrading (1 1 1)
    hex (16 17 18 19 20 21 22 23) ($Nx $Ny $Nz_5) simpleGrading (1 1 1)
    hex (20 21 22 23 24 25 26 27) ($Nx $Ny $Nz_6) simpleGrading (1 1 5)
);

edges
(
);

boundary
(
    atmosphere
    {
        type patch;
        faces
        (
            (24 25 26 27)
        );
    }
    inlet
    {
        type patch;
        faces
        (
            (1 2 6 5)
            (5 6 10 9)
            (9 10 14 13)
            (13 14 18 17)
            (17 18 22 21)
            (21 22 26 25)
        );
    }
    outlet
    {
        type patch;
        faces
        (
            (0 4 7 3)
            (4 8 11 7)
            (8 12 15 11)
            (12 16 19 15)
            (16 20 23 19)
            (20 24 27 23)
        );
    }
    bottom
    {
        type symmetryPlane;
        faces
        (
            (0 3 2 1)
        );
    }
    side
    {
        type symmetryPlane;
        faces
        (
            (0 1 5 4)
            (4 5 9 8)
            (8 9 13 12)
            (12 13 17 16)
            (16 17 21 20)
            (20 21 25 24)
        );
    }
    midPlane
    {
        type symmetryPlane;
        faces
        (
            (3 7 6 2)
            (7 11 10 6)
            (11 15 14 10)
            (15 19 18 14)
            (19 23 22 18)
            (23 27 26 22)
        );
    }
);

mergePatchPairs
(
);


// ************************************************************************* //
