/*--------------------------------*- C++ -*----------------------------------*\
| =========                 |                                                 |
| \\      /  F ield         | OpenFOAM: The Open Source CFD Toolbox           |
|  \\    /   O peration     | Version:  v2412                                 |
|   \\  /    A nd           | Website:  www.openfoam.com                      |
|    \\/     M anipulation  |                                                 |
\*---------------------------------------------------------------------------*/
FoamFile
{
    version     2.0;
    format      ascii;
    class       dictionary;
    object      topoSetDict;
}
// * * * * * * * * * * * * * * * * * * * * * * * * * * * * * * * * * * * * * //

#include "constant/configurationDict"

actions
(
    {
        name    c0;
        type    cellSet;
        action  new;
        source  boxToCell;
        box     ( #calc "$refine2_minX * $Lwl" #calc "$refine2_minY * $Lwl" #calc "$refine2_minZ * $Lwl" )
                ( #calc "$refine2_maxX * $Lwl" #calc "$refine2_maxY * $Lwl" #calc "$refine2_maxZ * $Lwl" );
    }
);


// ************************************************************************* //
